resultados/08_votacao_multifolha/alimentador_geometria_cemig/linhas_extraido.dss
New "Line.SMT_247808671" phases=3 bus1="NODE#2015114208.1.2.3" bus2="NODE#445011037.1.2.3" geometry=GEOM_LOSANG_CEMIG length=0.02800 units=km
New "Line.SMT_247808666" phases=3 bus1="NODE#2015114208.1.2.3" bus2="NODE#445010792.1.2.3" geometry=GEOM_LOSANG_CEMIG length=0.04000 units=km
New "Line.RED_RED_SMT_1689590278" phases=3 bus1="NODE#2015114208.1.2.3" bus2="NODE#433472219.1.2.3" geometry=GEOM_LOSANG_CEMIG length=0.13700 units=km
New "Line.SMT_246684459" phases=3 bus1="NODE#433296879.1.2.3" bus2="NODE#439763061.1.2.3" geometry=GEOM_LOSANG_CEMIG length=0.03162 units=km
New "Line.SMT_247391752" phases=3 bus1="NODE#433296879.1.2.3" bus2="NODE#1361434537.1.2.3" geometry=GEOM_LOSANG_CEMIG length=0.03700 units=km
New "Line.RED_RED_SMT_245488512" phases=3 bus1="NODE#433296879.1.2.3" bus2="NODE#433297643.1.2.3" geometry=GEOM_LOSANG_CEMIG length=0.32815 units=km
New "Line.RED_SMT_1094029690" phases=3 bus1="NODE#1361434537.1.2.3" bus2="NODE#1361434538.1.2.3" geometry=GEOM_LOSANG_CEMIG length=0.07300 units=km
New "Line.RED_RED_SMT_247391693" phases=3 bus1="NODE#1361434537.1.2.3" bus2="NODE#442900187.1.2.3" geometry=GEOM_LOSANG_CEMIG length=0.65985 units=km
New "Line.SMT_245488906" phases=3 bus1="NODE#433471373.1.2.3" bus2="NODE#424245131.1.2.3" geometry=GEOM_LOSANG_CEMIG length=0.03384 units=km
New "Line.SMT_245488932" phases=3 bus1="NODE#433471373.1.2.3" bus2="NODE#424246419.1.2.3" geometry=GEOM_LOSANG_CEMIG length=0.03384 units=km
New "Line.RED_SMT_247127483" phases=3 bus1="NODE#424245131.1.2.3" bus2="NODE#442497631.1.2.3" geometry=GEOM_LOSANG_CEMIG length=0.06839 units=km
New "Line.RED_RED_SMT_243625044" phases=1 bus1="NODE#424245131.1" bus2="NODE#424246330.1" geometry=GEOM_MONO_CEMIG length=0.25070 units=km
New "Line.SMT_247808069" phases=3 bus1="NODE#444955884.1.2.3" bus2="NODE#444956499.1.2.3" geometry=GEOM_LOSANG_CEMIG length=0.04441 units=km
New "Line.RED_SMT_247808569" phases=3 bus1="NODE#444955884.1.2.3" bus2="NODE#434807045.1.2.3" geometry=GEOM_LOSANG_CEMIG length=0.03746 units=km
New "Line.RED_RED_SMT_347582184" phases=3 bus1="NODE#444955884.1.2.3" bus2="NODE#444955889.1.2.3" geometry=GEOM_LOSANG_CEMIG length=0.08920 units=km
New "Line.RED_RED_SMT_247809175" phases=3 bus1="NODE#445056380.1.2.3" bus2="NODE#433642874.1.2.3" geometry=GEOM_LOSANG_CEMIG length=0.12800 units=km
New "Line.RED_RED_SMT_247808935" phases=1 bus1="NODE#445012260.3" bus2="NODE#433473272.3" geometry=GEOM_MONO_CEMIG length=0.11698 units=km
New "Line.RED_RED_SMT_342316572" phases=1 bus1="NODE#445012260.3" bus2="NODE#433473503.3" geometry=GEOM_MONO_CEMIG length=0.08616 units=km
New "Line.RED_SMT_247808913" phases=1 bus1="NODE#433473272.3" bus2="NODE#445012251.3" geometry=GEOM_MONO_CEMIG length=0.08974 units=km
New "Line.RED_RED_SMT_245489310" phases=1 bus1="NODE#433473272.3" bus2="NODE#1981522710.3" geometry=GEOM_MONO_CEMIG length=0.24058 units=km
New "Line.RED_RED_SMT_247808488" phases=3 bus1="NODE#445009961.1.2.3" bus2="NODE#445009607.1.2.3" geometry=GEOM_LOSANG_CEMIG length=0.16164 units=km
New "Line.RED_RED_SMT_247808562" phases=3 bus1="NODE#445009961.1.2.3" bus2="NODE#433471583.1.2.3" geometry=GEOM_LOSANG_CEMIG length=0.28036 units=km
New "Line.RED_SMT_247808616" phases=3 bus1="NODE#445010976.1.2.3" bus2="NODE#445010762.1.2.3" geometry=GEOM_LOSANG_CEMIG length=0.17878 units=km
New "Line.RED_RED_SMT_247808730" phases=3 bus1="NODE#445010976.1.2.3" bus2="NODE#433473112.1.2.3" geometry=GEOM_LOSANG_CEMIG length=0.17116 units=km
New "Line.RED_SMT_245488926" phases=3 bus1="NODE#433471319.1.2.3" bus2="NODE#424246419.1.2.3" geometry=GEOM_LOSANG_CEMIG length=0.07414 units=km
New "Line.RED_SMT_348868046" phases=1 bus1="NODE#433471319.2" bus2="NODE#434600393.2" geometry=GEOM_MONO_CEMIG length=0.15836 units=km
New "Line.RED_RED_SMT_245488923" phases=3 bus1="NODE#433471319.1.2.3" bus2="NODE#433471424.1.2.3" geometry=GEOM_LOSANG_CEMIG length=0.16430 units=km
New "Line.SMT_245489175" phases=3 bus1="NODE#433472718.1.2.3" bus2="NODE#433472719.1.2.3" geometry=GEOM_LOSANG_CEMIG length=0.02012 units=km
New "Line.SMT_924644262" phases=3 bus1="NODE#433472718.1.2.3.4" bus2="NODE#1194264563.1.2.3.4" geometry=GEOM_LOSANG_CEMIG length=0.00200 units=km
New "Line.RED_SMT_348153494" phases=3 bus1="NODE#433472718.1.2.3" bus2="NODE#433473112.1.2.3" geometry=GEOM_LOSANG_CEMIG length=0.02785 units=km
New "Line.SMT_243624968" phases=3 bus1="NODE#424245856.1.2.3" bus2="NODE#535524313.1.2.3" geometry=GEOM_LOSANG_CEMIG length=0.00051 units=km
New "Line.RED_SMT_243624983" phases=3 bus1="NODE#424245856.1.2.3" bus2="NODE#424245900.1.2.3" geometry=GEOM_LOSANG_CEMIG length=0.03183 units=km
New "Line.RED_SMT_243624972" phases=3 bus1="NODE#424245856.1.2.3" bus2="NODE#424245711.1.2.3" geometry=GEOM_LOSANG_CEMIG length=0.13495 units=km
New "Line.RED_RED_SMT_348421262" phases=3 bus1="NODE#445010637.1.2.3" bus2="NODE#433298383.1.2.3" geometry=GEOM_LOSANG_CEMIG length=0.15792 units=km
New "Line.RED_SMT_247808318" phases=3 bus1="NODE#445009607.1.2.3" bus2="NODE#433470858.1.2.3" geometry=GEOM_LOSANG_CEMIG length=0.07757 units=km
New "Line.SMT_247808734" phases=3 bus1="NODE#442899901.1.2.3" bus2="NODE#445011352.1.2.3" geometry=GEOM_LOSANG_CEMIG length=0.02052 units=km
New "Line.RED_SMT_247808838" phases=3 bus1="NODE#442899901.1.2.3" bus2="NODE#445011875.1.2.3" geometry=GEOM_LOSANG_CEMIG length=0.13286 units=km
New "Line.RED_RED_SMT_348951982" phases=1 bus1="NODE#442899901.2" bus2="NODE#445011447.2" geometry=GEOM_MONO_CEMIG length=0.27186 units=km
New "Line.RED_SMT_247807284" phases=3 bus1="NODE#444896747.1.2.3" bus2="NODE#424244272.1.2.3" geometry=GEOM_LOSANG_CEMIG length=0.07127 units=km
New "Line.RED_SMT_247807422" phases=3 bus1="NODE#444896747.1.2.3" bus2="NODE#444896762.1.2.3" geometry=GEOM_LOSANG_CEMIG length=0.06407 units=km
New "Line.RED_SMT_869419070" phases=3 bus1="NODE#445012811.1.2.3" bus2="NODE#1136793634.1.2.3" geometry=GEOM_LOSANG_CEMIG length=0.07100 units=km
New "Line.RED_RED_SMT_348079368" phases=3 bus1="NODE#445012811.1.2.3" bus2="NODE#424311784.1.2.3" geometry=GEOM_LOSANG_CEMIG length=0.15400 units=km
New "Line.SMT_245489626" phases=3 bus1="NODE#433474943.1.2.3" bus2="NODE#424313018.1.2.3" geometry=GEOM_LOSANG_CEMIG length=0.02530 units=km
New "Line.RED_SMT_245489625" phases=3 bus1="NODE#433474943.1.2.3" bus2="NODE#433474657.1.2.3" geometry=GEOM_LOSANG_CEMIG length=0.07775 units=km
New "Line.RED_SMT_245489735" phases=3 bus1="NODE#433474943.1.2.3" bus2="NODE#433474383.1.2.3" geometry=GEOM_LOSANG_CEMIG length=0.07157 units=km
New "Line.RED_SMT_243625516" phases=3 bus1="NODE#424313018.1.2.3" bus2="NODE#424312288.1.2.3" geometry=GEOM_LOSANG_CEMIG length=0.02341 units=km
New "Line.SMT_247808892" phases=1 bus1="NODE#445011077.2" bus2="NODE#445012146.2" geometry=GEOM_MONO_CEMIG length=0.04522 units=km
New "Line.RED_RED_SMT_343237416" phases=1 bus1="NODE#445011077.2" bus2="NODE#433471903.2" geometry=GEOM_MONO_CEMIG length=0.07973 units=km
New "Line.RED_RED_SMT_247808893" phases=1 bus1="NODE#445012146.2" bus2="NODE#445011547.2" geometry=GEOM_MONO_CEMIG length=0.17045 units=km
New "Line.RED_RED_SMT_247808685" phases=1 bus1="NODE#445012146.2" bus2="NODE#445011107.2" geometry=GEOM_MONO_CEMIG length=0.09948 units=km
New "Line.RED_SMT_2384681526" phases=3 bus1="NODE#2566408161.1.2.3" bus2="NODE#2566408162.1.2.3" geometry=GEOM_LOSANG_CEMIG length=0.04000 units=km
New "Line.RED_SMT_2384436742" phases=3 bus1="NODE#2566408161.1.2.3" bus2="NODE#424243361.1.2.3" geometry=GEOM_LOSANG_CEMIG length=0.05100 units=km
New "Line.SMT_247127422" phases=3 bus1="NODE#442497686.1.2.3" bus2="NODE#434600423.1.2.3" geometry=GEOM_LOSANG_CEMIG length=0.03401 units=km
New "Line.RED_SMT_247127413" phases=3 bus1="NODE#442497686.1.2.3" bus2="NODE#442497692.1.2.3" geometry=GEOM_LOSANG_CEMIG length=0.06093 units=km
New "Line.RED_SMT_343535927" phases=3 bus1="NODE#442497686.1.2.3" bus2="NODE#445010091.1.2.3" geometry=GEOM_LOSANG_CEMIG length=0.06966 units=km
New "Line.SMT_247127403" phases=3 bus1="NODE#442497632.1.2.3" bus2="NODE#434807180.1.2.3" geometry=GEOM_LOSANG_CEMIG length=0.04002 units=km
New "Line.SMT_247127402" phases=3 bus1="NODE#442497632.1.2.3" bus2="NODE#442497631.1.2.3" geometry=GEOM_LOSANG_CEMIG length=0.04052 units=km
New "Line.RED_RED_SMT_348421315" phases=3 bus1="NODE#442497632.1.2.3" bus2="NODE#445009587.1.2.3" geometry=GEOM_LOSANG_CEMIG length=0.19249 units=km
New "Line.RED_RED_SMT_243624939" phases=3 bus1="NODE#424245711.1.2.3" bus2="NODE#2316029020.1.2.3" geometry=GEOM_LOSANG_CEMIG length=0.15568 units=km
New "Line.RED_RED_RED_SMT_1997581692" phases=3 bus1="NODE#2316029020.1.2.3" bus2="NODE#424244987.1.2.3" geometry=GEOM_LOSANG_CEMIG length=0.18700 units=km
New "Line.RED_SMT_243625377" phases=3 bus1="NODE#424246944.1.2.3" bus2="NODE#424246834.1.2.3" geometry=GEOM_LOSANG_CEMIG length=0.09589 units=km
New "Line.RED_RED_RED_SMT_243625171" phases=3 bus1="NODE#424246944.1.2.3" bus2="NODE#424246733.1.2.3" geometry=GEOM_LOSANG_CEMIG length=0.40085 units=km
New "Line.RED_SMT_247808771" phases=3 bus1="NODE#433473112.1.2.3" bus2="NODE#445010992.1.2.3" geometry=GEOM_LOSANG_CEMIG length=0.05870 units=km
New "Line.RED_SMT_247808757" phases=1 bus1="NODE#433473112.2" bus2="NODE#433473407.2" geometry=GEOM_MONO_CEMIG length=0.09491 units=km
New "Line.RED_RED_SMT_243625136" phases=3 bus1="NODE#424246698.1.2.3" bus2="NODE#424246704.1.2.3" geometry=GEOM_LOSANG_CEMIG length=0.14093 units=km
New "Line.RED_SMT_243625139" phases=3 bus1="NODE#424246698.1.2.3" bus2="NODE#424246718.1.2.3" geometry=GEOM_LOSANG_CEMIG length=0.19396 units=km
New "Line.SMT_245700293" phases=3 bus1="NODE#434807531.1.2.3" bus2="NODE#433298573.1.2.3" geometry=GEOM_LOSANG_CEMIG length=0.05478 units=km
New "Line.RED_RED_SMT_343239569" phases=3 bus1="NODE#434807531.1.2.3" bus2="NODE#444957008.1.2.3" geometry=GEOM_LOSANG_CEMIG length=0.20918 units=km
New "Line.RED_RED_SMT_243625378" phases=3 bus1="NODE#424246874.1.2.3" bus2="NODE#424246849.1.2.3" geometry=GEOM_LOSANG_CEMIG length=0.12137 units=km
New "Line.RED_SMT_342650306" phases=3 bus1="NODE#424246874.1.2.3" bus2="NODE#434602944.1.2.3" geometry=GEOM_LOSANG_CEMIG length=0.11598 units=km
New "Line.SMT_247808416" phases=1 bus1="NODE#445009331.2" bus2="NODE#442497746.2" geometry=GEOM_MONO_CEMIG length=0.02138 units=km
New "Line.RED_RED_SMT_247808330" phases=1 bus1="NODE#445009331.2" bus2="NODE#445009506.2" geometry=GEOM_MONO_CEMIG length=0.19216 units=km
New "Line.RED_SMT_243624748" phases=3 bus1="NODE#424244263.1.2.3" bus2="NODE#424244397.1.2.3" geometry=GEOM_LOSANG_CEMIG length=0.08736 units=km
New "Line.RED_SMT_243624651" phases=3 bus1="NODE#424244263.1.2.3" bus2="NODE#424244272.1.2.3" geometry=GEOM_LOSANG_CEMIG length=0.05909 units=km
New "Line.RED_RED_SMT_245700237" phases=3 bus1="NODE#434807181.1.2.3" bus2="NODE#434807211.1.2.3" geometry=GEOM_LOSANG_CEMIG length=0.14482 units=km
New "Line.RED_SMT_341836499" phases=3 bus1="NODE#434807181.1.2.3" bus2="NODE#434807180.1.2.3" geometry=GEOM_LOSANG_CEMIG length=0.03535 units=km
New "Line.RED_RED_SMT_245699239" phases=3 bus1="NODE#434600423.1.2.3" bus2="NODE#442498247.1.2.3" geometry=GEOM_LOSANG_CEMIG length=0.13434 units=km
New "Line.RED_SMT_245488832" phases=1 bus1="NODE#433470953.2" bus2="NODE#433471004.2" geometry=GEOM_MONO_CEMIG length=0.07375 units=km
New "Line.RED_SMT_247808344" phases=1 bus1="NODE#433470953.2" bus2="NODE#445009507.2" geometry=GEOM_MONO_CEMIG length=0.07558 units=km
New "Line.RED_SMT_348286388" phases=3 bus1="NODE#445010727.1.2.3" bus2="NODE#445010091.1.2.3" geometry=GEOM_LOSANG_CEMIG length=0.06633 units=km
New "Line.SMT_243625242" phases=3 bus1="NODE#424311643.1.2.3" bus2="NODE#424311644.1.2.3" geometry=GEOM_LOSANG_CEMIG length=0.02746 units=km
New "Line.RED_SMT_348728681" phases=3 bus1="NODE#424311643.1.2.3" bus2="NODE#424311649.1.2.3" geometry=GEOM_LOSANG_CEMIG length=0.02220 units=km
New "Line.RED_RED_SMT_243625258" phases=3 bus1="NODE#424311643.1.2.3" bus2="NODE#424311703.1.2.3" geometry=GEOM_LOSANG_CEMIG length=0.12366 units=km
New "Line.RED_RED_SMT_1660335376" phases=1 bus1="NODE#1981522711.3" bus2="NODE#1981522710.3" geometry=GEOM_MONO_CEMIG length=0.22400 units=km
New "Line.RED_SMT_247807948" phases=3 bus1="NODE#434807045.1.2.3" bus2="NODE#444957008.1.2.3" geometry=GEOM_LOSANG_CEMIG length=0.07686 units=km
New "Line.RED_SMT_343796915" phases=1 bus1="NODE#434807045.2" bus2="NODE#434807366.2" geometry=GEOM_MONO_CEMIG length=0.30747 units=km
New "Line.RED_SMT_247808750" phases=3 bus1="NODE#445011352.1.2.3" bus2="NODE#445011432.1.2.3" geometry=GEOM_LOSANG_CEMIG length=0.13227 units=km
New "Line.SMT_247807574" phases=3 bus1="NODE#424245571.1.2.3" bus2="NODE#535524517.1.2.3" geometry=GEOM_LOSANG_CEMIG length=0.00050 units=km
New "Line.RED_RED_SMT_243624912" phases=3 bus1="NODE#424245571.1.2.3" bus2="NODE#424244608.1.2.3" geometry=GEOM_LOSANG_CEMIG length=0.14584 units=km
New "Line.RED_SMT_243624911" phases=3 bus1="NODE#424245571.1.2.3" bus2="NODE#424244397.1.2.3" geometry=GEOM_LOSANG_CEMIG length=0.05045 units=km
New "Line.RED_RED_SMT_347582194" phases=1 bus1="NODE#433472419.3" bus2="NODE#433470798.3" geometry=GEOM_MONO_CEMIG length=0.12993 units=km
New "Line.SMT_243625384" phases=3 bus1="NODE#424312122.1.2.3" bus2="NODE#424311694.1.2.3" geometry=GEOM_LOSANG_CEMIG length=0.03818 units=km
New "Line.RED_SMT_343728646" phases=3 bus1="NODE#424312122.1.2.3" bus2="NODE#190549085.1.2.3" geometry=GEOM_LOSANG_CEMIG length=0.02236 units=km
New "Line.RED_SMT_243625233" phases=3 bus1="NODE#424312122.1.2.3" bus2="NODE#424247148.1.2.3" geometry=GEOM_LOSANG_CEMIG length=0.20567 units=km
New "Line.RED_SMT_247808542" phases=3 bus1="NODE#445011621.1.2.3" bus2="NODE#445010391.1.2.3" geometry=GEOM_LOSANG_CEMIG length=0.13480 units=km
New "Line.RED_SMT_342933775" phases=3 bus1="NODE#445011621.1.2.3" bus2="NODE#445010992.1.2.3" geometry=GEOM_LOSANG_CEMIG length=0.11276 units=km
New "Line.RED_SMT_247808829" phases=1 bus1="NODE#445011621.1" bus2="NODE#445011831.1" geometry=GEOM_MONO_CEMIG length=0.07654 units=km
New "Line.RED_SMT_247808580" phases=3 bus1="NODE#445010502.1.2.3" bus2="NODE#445010792.1.2.3" geometry=GEOM_LOSANG_CEMIG length=0.10081 units=km
New "Line.RED_RED_SMT_247808564" phases=3 bus1="NODE#445010502.1.2.3" bus2="NODE#433471583.1.2.3" geometry=GEOM_LOSANG_CEMIG length=0.09152 units=km
New "Line.SMT_247808048" phases=3 bus1="NODE#433471813.1.2.3" bus2="NODE#444956393.1.2.3" geometry=GEOM_LOSANG_CEMIG length=0.01640 units=km
New "Line.RED_SMT_245488704" phases=3 bus1="NODE#433471813.1.2.3" bus2="NODE#433298604.1.2.3" geometry=GEOM_LOSANG_CEMIG length=0.09533 units=km
New "Line.SMT_243624474" phases=3 bus1="NODE#424243362.1.2.3" bus2="NODE#424243361.1.2.3" geometry=GEOM_LOSANG_CEMIG length=0.01789 units=km
New "Line.RED_RED_SMT_243624611" phases=3 bus1="NODE#424243362.1.2.3" bus2="NODE#444894785.1.2.3" geometry=GEOM_LOSANG_CEMIG length=0.15140 units=km
New "Line.RED_RED_SMT_243624686" phases=3 bus1="NODE#424243362.1.2.3" bus2="NODE#424244448.1.2.3" geometry=GEOM_LOSANG_CEMIG length=0.06338 units=km
New "Line.RED_SMT_243624497" phases=3 bus1="NODE#424243362.1.2.3" bus2="100#351815192.1.2.3" geometry=GEOM_LOSANG_CEMIG length=0.07925 units=km
New "Line.RED_RED_SMT_246684315" phases=3 bus1="NODE#439761896.1.2.3" bus2="NODE#424244448.1.2.3" geometry=GEOM_LOSANG_CEMIG length=0.14360 units=km
New "Line.RED_RED_SMT_246684231" phases=3 bus1="NODE#439761896.1.2.3" bus2="NODE#439762066.1.2.3" geometry=GEOM_LOSANG_CEMIG length=0.27215 units=km
New "Line.SMT_245489331" phases=3 bus1="NODE#433473503.1.2.3" bus2="NODE#433473497.1.2.3" geometry=GEOM_LOSANG_CEMIG length=0.01772 units=km
New "Line.RED_SMT_343403092" phases=1 bus1="NODE#433472319.2" bus2="NODE#433472318.2" geometry=GEOM_MONO_CEMIG length=0.04061 units=km
New "Line.RED_SMT_247808670" phases=1 bus1="NODE#433472319.2" bus2="NODE#445011032.2" geometry=GEOM_MONO_CEMIG length=0.15564 units=km
New "Line.SMT_245699211" phases=3 bus1="NODE#434600282.1.2.3" bus2="NODE#434600283.1.2.3" geometry=GEOM_LOSANG_CEMIG length=0.02691 units=km
New "Line.RED_SMT_343637919" phases=3 bus1="NODE#434600282.1.2.3" bus2="NODE#424311703.1.2.3" geometry=GEOM_LOSANG_CEMIG length=0.09330 units=km
New "Line.RED_SMT_247809074" phases=3 bus1="NODE#434600303.1.2.3" bus2="NODE#433473497.1.2.3" geometry=GEOM_LOSANG_CEMIG length=0.12093 units=km
New "Line.RED_RED_SMT_245699214" phases=3 bus1="NODE#434600303.1.2.3" bus2="NODE#434600283.1.2.3" geometry=GEOM_LOSANG_CEMIG length=0.17557 units=km
New "Line.RED_SMT_245489012" phases=1 bus1="NODE#433471903.2" bus2="NODE#433472273.2" geometry=GEOM_MONO_CEMIG length=0.10405 units=km
New "Line.RED_SMT_247808669" phases=1 bus1="NODE#433471903.2" bus2="NODE#433472318.2" geometry=GEOM_MONO_CEMIG length=0.10685 units=km
New "Line.RED_SMT_247808025" phases=1 bus1="NODE#433470798.3" bus2="NODE#444956059.3" geometry=GEOM_MONO_CEMIG length=0.05001 units=km
New "Line.SMT_243625047" phases=1 bus1="NODE#424246254.1" bus2="NODE#424246255.1" geometry=GEOM_MONO_CEMIG length=0.03000 units=km
New "Line.RED_SMT_348672797" phases=1 bus1="NODE#424246254.1" bus2="NODE#424246419.1" geometry=GEOM_MONO_CEMIG length=0.21765 units=km
New "Line.RED_SMT_243625154" phases=3 bus1="NODE#424311694.1.2.3" bus2="NODE#424246789.1.2.3" geometry=GEOM_LOSANG_CEMIG length=0.25621 units=km
New "Line.RED_SMT_343638019" phases=3 bus1="NODE#424245900.1.2.3" bus2="NODE#434807426.1.2.3" geometry=GEOM_LOSANG_CEMIG length=0.02550 units=km
New "Line.RED_RED_SMT_243624997" phases=3 bus1="NODE#424245900.1.2.3" bus2="NODE#424246001.1.2.3" geometry=GEOM_LOSANG_CEMIG length=0.22107 units=km
New "Line.SMT_247808667" phases=3 bus1="NODE#442497917.1.2.3" bus2="NODE#1987035704.1.2.3" geometry=GEOM_LOSANG_CEMIG length=0.03400 units=km
New "Line.SMT_247127459" phases=3 bus1="NODE#442497917.1.2.3" bus2="NODE#442497906.1.2.3" geometry=GEOM_LOSANG_CEMIG length=0.02830 units=km
New "Line.RED_SMT_351886223" phases=1 bus1="NODE#1987035704.2" bus2="NODE#433472318.2" geometry=GEOM_MONO_CEMIG length=0.07721 units=km
New "Line.RED_SMT_247127432" phases=3 bus1="NODE#442498126.1.2.3" bus2="NODE#442497782.1.2.3" geometry=GEOM_LOSANG_CEMIG length=0.20111 units=km
New "Line.RED_RED_SMT_247127508" phases=3 bus1="NODE#442498126.1.2.3" bus2="NODE#442498027.1.2.3" geometry=GEOM_LOSANG_CEMIG length=0.44186 units=km
New "Line.RED_RED_SMT_247808644" phases=3 bus1="NODE#445011037.1.2.3" bus2="NODE#445010711.1.2.3" geometry=GEOM_LOSANG_CEMIG length=0.17872 units=km
New "Line.RED_SMT_247808675" phases=1 bus1="NODE#445011037.2" bus2="NODE#433472213.2" geometry=GEOM_MONO_CEMIG length=0.06270 units=km
New "Line.RED_SMT_247808084" phases=3 bus1="NODE#433297643.1.2.3" bus2="NODE#444955668.1.2.3" geometry=GEOM_LOSANG_CEMIG length=0.04600 units=km
New "Line.RED_SMT_348077064" phases=3 bus1="NODE#433297643.1.2.3" bus2="NODE#444956789.1.2.3" geometry=GEOM_LOSANG_CEMIG length=0.11408 units=km
New "Line.RED_SMT_247808923" phases=3 bus1="NODE#445012056.1.2.3" bus2="NODE#424245346.1.2.3" geometry=GEOM_LOSANG_CEMIG length=0.05649 units=km
New "Line.RED_SMT_247808845" phases=3 bus1="NODE#445012056.1.2.3" bus2="NODE#445011875.1.2.3" geometry=GEOM_LOSANG_CEMIG length=0.14353 units=km
New "Line.SMT_245489293" phases=3 bus1="NODE#433473312.1.2.3" bus2="NODE#433473177.1.2.3" geometry=GEOM_LOSANG_CEMIG length=0.04342 units=km
New "Line.RED_RED_SMT_245489311" phases=3 bus1="NODE#433473312.1.2.3" bus2="NODE#433473492.1.2.3" geometry=GEOM_LOSANG_CEMIG length=0.21633 units=km
New "Line.RED_SMT_347747678" phases=3 bus1="NODE#433473312.1.2.3" bus2="NODE#442898403.1.2.3" geometry=GEOM_LOSANG_CEMIG length=0.03544 units=km
New "Line.RED_SMT_341836677" phases=3 bus1="NODE#433473177.1.2.3" bus2="NODE#535524539.1.2.3" geometry=GEOM_LOSANG_CEMIG length=0.17200 units=km
New "Line.RED_SMT_348546924" phases=3 bus1="NODE#445010512.1.2.3" bus2="NODE#444956603.1.2.3" geometry=GEOM_LOSANG_CEMIG length=0.11325 units=km
New "Line.RED_SMT_243625229" phases=3 bus1="NODE#424246773.1.2.3" bus2="NODE#424247013.1.2.3" geometry=GEOM_LOSANG_CEMIG length=0.11269 units=km
New "Line.RED_RED_SMT_341832599" phases=3 bus1="NODE#424246773.1.2.3" bus2="NODE#424247099.1.2.3" geometry=GEOM_LOSANG_CEMIG length=0.09448 units=km
New "Line.RED_RED_SMT_243625272" phases=3 bus1="NODE#424246773.1.2.3" bus2="NODE#424247148.1.2.3" geometry=GEOM_LOSANG_CEMIG length=0.17076 units=km
New "Line.RED_SMT_243624871" phases=3 bus1="NODE#424245371.1.2.3" bus2="NODE#424245471.1.2.3" geometry=GEOM_LOSANG_CEMIG length=0.08545 units=km
New "Line.RED_RED_SMT_243625105" phases=3 bus1="NODE#424245371.1.2.3" bus2="NODE#424245231.1.2.3" geometry=GEOM_LOSANG_CEMIG length=0.55776 units=km
New "Line.RED_SMT_347582254" phases=3 bus1="NODE#433642874.1.2.3" bus2="NODE#433474663.1.2.3" geometry=GEOM_LOSANG_CEMIG length=0.02550 units=km
New "Line.RED_SMT_246684432" phases=3 bus1="NODE#439762066.1.2.3" bus2="NODE#424244917.1.2.3" geometry=GEOM_LOSANG_CEMIG length=0.09186 units=km
New "Line.SMT_245489563" phases=3 bus1="NODE#433474657.1.2.3" bus2="NODE#433474663.1.2.3" geometry=GEOM_LOSANG_CEMIG length=0.01700 units=km
New "Line.RED_SMT_342933426" phases=3 bus1="NODE#433474657.1.2.3" bus2="NODE#433474647.1.2.3" geometry=GEOM_LOSANG_CEMIG length=0.09156 units=km
New "Line.SMT_245489713" phases=3 bus1="NODE#433474663.1.2.3" bus2="NODE#424312862.1.2.3" geometry=GEOM_LOSANG_CEMIG length=0.03523 units=km
New "Line.SMT_245489738" phases=3 bus1="NODE#424313022.1.2.3" bus2="NODE#424312287.1.2.3" geometry=GEOM_LOSANG_CEMIG length=0.01487 units=km
New "Line.RED_SMT_243625362" phases=3 bus1="NODE#424313022.1.2.3" bus2="NODE#424312248.1.2.3" geometry=GEOM_LOSANG_CEMIG length=0.18052 units=km
New "Line.RED_RED_SMT_245489573" phases=3 bus1="NODE#424313022.1.2.3" bus2="NODE#433474482.1.2.3" geometry=GEOM_LOSANG_CEMIG length=0.16179 units=km
New "Line.SMT_245488660" phases=3 bus1="NODE#433298383.1.2.3" bus2="NODE#433298263.1.2.3" geometry=GEOM_LOSANG_CEMIG length=0.01942 units=km
New "Line.SMT_247808353" phases=3 bus1="NODE#433298383.1.2.3" bus2="NODE#444955668.1.2.3" geometry=GEOM_LOSANG_CEMIG length=0.04357 units=km
New "Line.RED_SMT_247808588" phases=3 bus1="NODE#433298383.1.2.3" bus2="NODE#444956604.1.2.3" geometry=GEOM_LOSANG_CEMIG length=0.04207 units=km
New "Line.RED_RED_SMT_952014271" phases=3 bus1="NODE#444955668.1.2.3" bus2="NODE#444955624.1.2.3" geometry=GEOM_LOSANG_CEMIG length=0.16053 units=km
New "Line.SMT_247127214" phases=3 bus1="NODE#424244008.1.2.3" bus2="NODE#442243318.1.2.3" geometry=GEOM_LOSANG_CEMIG length=0.00500 units=km
New "Line.RED_SMT_341430286" phases=3 bus1="NODE#424244008.1.2.3" bus2="NODE#434600717.1.2.3" geometry=GEOM_LOSANG_CEMIG length=0.34501 units=km
New "Line.RED_RED_SMT_243624525" phases=3 bus1="NODE#424244008.1.2.3" bus2="100#207301442.1.2.3" geometry=GEOM_LOSANG_CEMIG length=0.04706 units=km
New "Line.RED_SMT_245699244" phases=3 bus1="NODE#434600447.1.2.3" bus2="NODE#433471648.1.2.3" geometry=GEOM_LOSANG_CEMIG length=0.60010 units=km
New "Line.RED_SMT_343637835" phases=3 bus1="NODE#434600447.1.2.3" bus2="NODE#433298919.1.2.3" geometry=GEOM_LOSANG_CEMIG length=0.14049 units=km
New "Line.RED_SMT_348286441" phases=3 bus1="NODE#445012806.1.2.3" bus2="NODE#424311709.1.2.3" geometry=GEOM_LOSANG_CEMIG length=0.07606 units=km
New "Line.SMT_247807623" phases=3 bus1="NODE#424244738.1.2.3" bus2="NODE#537936452.1.2.3" geometry=GEOM_LOSANG_CEMIG length=0.00062 units=km
New "Line.RED_SMT_243624716" phases=3 bus1="NODE#424244738.1.2.3" bus2="NODE#424244588.1.2.3" geometry=GEOM_LOSANG_CEMIG length=0.14400 units=km
New "Line.RED_SMT_243624759" phases=3 bus1="NODE#424244738.1.2.3" bus2="NODE#424244608.1.2.3" geometry=GEOM_LOSANG_CEMIG length=0.09221 units=km
New "Line.SMT_243625270" phases=3 bus1="NODE#424311784.1.2.3" bus2="NODE#424247099.1.2.3" geometry=GEOM_LOSANG_CEMIG length=0.03625 units=km
New "Line.RED_SMT_247809075" phases=3 bus1="NODE#424311784.1.2.3" bus2="NODE#424311738.1.2.3" geometry=GEOM_LOSANG_CEMIG length=0.14052 units=km
New "Line.RED_SMT_247808109" phases=3 bus1="NODE#444956499.1.2.3" bus2="NODE#444956603.1.2.3" geometry=GEOM_LOSANG_CEMIG length=0.04169 units=km
New "Line.RED_SMT_348079293" phases=3 bus1="NODE#444956499.1.2.3" bus2="NODE#444956544.1.2.3" geometry=GEOM_LOSANG_CEMIG length=0.15536 units=km
New "Line.RED_SMT_348286361" phases=3 bus1="NODE#433471359.1.2.3" bus2="NODE#433470858.1.2.3" geometry=GEOM_LOSANG_CEMIG length=0.10703 units=km
New "Line.RED_SMT_245699298" phases=3 bus1="NODE#434600717.1.2.3" bus2="NODE#1600635845.1.2.3" geometry=GEOM_LOSANG_CEMIG length=0.14300 units=km
New "Line.SMT_245700290" phases=3 bus1="NODE#434807211.1.2.3" bus2="NODE#434807516.1.2.3" geometry=GEOM_LOSANG_CEMIG length=0.03397 units=km
New "Line.RED_SMT_245700292" phases=3 bus1="NODE#434807211.1.2.3" bus2="NODE#536849755.1.2.3" geometry=GEOM_LOSANG_CEMIG length=0.03361 units=km
New "Line.SMT_243624864" phases=3 bus1="NODE#424245316.1.2.3" bus2="NODE#424245336.1.2.3" geometry=GEOM_LOSANG_CEMIG length=0.00728 units=km
New "Line.SMT_343535078" phases=3 bus1="NODE#424245316.1.2.3" bus2="NODE#424245315.1.2.3" geometry=GEOM_LOSANG_CEMIG length=0.03895 units=km
New "Line.RED_SMT_243624869" phases=3 bus1="NODE#424245316.1.2.3" bus2="NODE#424245360.1.2.3" geometry=GEOM_LOSANG_CEMIG length=0.03041 units=km
New "Line.SMT_720965219" phases=3 bus1="NODE#424245336.1.2.3" bus2="NODE#994575320.1.2.3" geometry=GEOM_LOSANG_CEMIG length=0.00294 units=km
New "Line.RED_SMT_243624865" phases=3 bus1="NODE#424245336.1.2.3" bus2="NODE#424245346.1.2.3" geometry=GEOM_LOSANG_CEMIG length=0.03216 units=km
New "Line.SMT_245488767" phases=3 bus1="NODE#433298918.1.2.3" bus2="NODE#433298919.1.2.3" geometry=GEOM_LOSANG_CEMIG length=0.03158 units=km
New "Line.RED_RED_SMT_245489073" phases=3 bus1="NODE#433298918.1.2.3" bus2="NODE#433471163.1.2.3" geometry=GEOM_LOSANG_CEMIG length=0.25285 units=km
New "Line.RED_RED_SMT_247807991" phases=3 bus1="NODE#433298918.1.2.3" bus2="NODE#444956008.1.2.3" geometry=GEOM_LOSANG_CEMIG length=0.07927 units=km
New "Line.RED_SMT_246684313" phases=3 bus1="NODE#424244448.1.2.3" bus2="NODE#537936980.1.2.3" geometry=GEOM_LOSANG_CEMIG length=0.02062 units=km
New "Line.SMT_243624961" phases=3 bus1="NODE#910289402.1.2.3" bus2="NODE#910289390.1.2.3" geometry=GEOM_LOSANG_CEMIG length=0.01641 units=km
New "Line.RED_SMT_243624779" phases=3 bus1="NODE#910289402.1.2.3" bus2="NODE#424244588.1.2.3" geometry=GEOM_LOSANG_CEMIG length=0.13173 units=km
New "Line.RED_RED_SMT_243624795" phases=3 bus1="NODE#910289390.1.2.3" bus2="NODE#424244987.1.2.3" geometry=GEOM_LOSANG_CEMIG length=0.09124 units=km
New "Line.SMT_247808090" phases=3 bus1="NODE#444956604.1.2.3" bus2="NODE#444956603.1.2.3" geometry=GEOM_LOSANG_CEMIG length=0.04391 units=km
New "Line.RED_RED_SMT_348421272" phases=3 bus1="NODE#444956604.1.2.3" bus2="NODE#444956724.1.2.3" geometry=GEOM_LOSANG_CEMIG length=0.09223 units=km
New "Line.RED_SMT_247127426" phases=3 bus1="NODE#442497782.1.2.3" bus2="NODE#442497752.1.2.3" geometry=GEOM_LOSANG_CEMIG length=0.09235 units=km
New "Line.SMT_247808576" phases=1 bus1="NODE#445010191.2" bus2="NODE#433473033.2" geometry=GEOM_MONO_CEMIG length=0.06083 units=km
New "Line.RED_SMT_247808503" phases=1 bus1="NODE#445010191.2" bus2="NODE#445010272.2" geometry=GEOM_MONO_CEMIG length=0.42884 units=km
New "Line.RED_SMT_348287437" phases=1 bus1="NODE#445010191.2" bus2="NODE#445010192.2" geometry=GEOM_MONO_CEMIG length=0.14036 units=km
New "Line.RED_SMT_247127477" phases=3 bus1="NODE#433471163.1.2.3" bus2="NODE#442498027.1.2.3" geometry=GEOM_LOSANG_CEMIG length=0.07252 units=km
New "Line.RED_RED_SMT_247127379" phases=3 bus1="NODE#433471163.1.2.3" bus2="100#1087223788.1.2.3" geometry=GEOM_LOSANG_CEMIG length=0.28177 units=km
New "Line.SMT_245700295" phases=3 bus1="NODE#434807516.1.2.3" bus2="NODE#434807535.1.2.3" geometry=GEOM_LOSANG_CEMIG length=0.03624 units=km
New "Line.RED_SMT_247806893" phases=3 bus1="NODE#444894785.1.2.3" bus2="NODE#444896763.1.2.3" geometry=GEOM_LOSANG_CEMIG length=0.37878 units=km
New "Line.SMT_243624875" phases=3 bus1="NODE#424245380.1.2.3" bus2="NODE#424245391.1.2.3" geometry=GEOM_LOSANG_CEMIG length=0.00707 units=km
New "Line.RED_SMT_342315336" phases=3 bus1="NODE#424245380.1.2.3" bus2="NODE#439763715.1.2.3" geometry=GEOM_LOSANG_CEMIG length=0.01628 units=km
New "Line.RED_SMT_243624874" phases=3 bus1="NODE#424245380.1.2.3" bus2="NODE#424245360.1.2.3" geometry=GEOM_LOSANG_CEMIG length=0.08829 units=km
New "Line.RED_SMT_243625153" phases=3 bus1="NODE#424245380.1.2.3" bus2="NODE#424246789.1.2.3" geometry=GEOM_LOSANG_CEMIG length=0.07497 units=km
New "Line.RED_RED_SMT_247808939" phases=3 bus1="NODE#439763715.1.2.3" bus2="NODE#439763635.1.2.3" geometry=GEOM_LOSANG_CEMIG length=0.12328 units=km
New "Line.RED_RED_SMT_245488734" phases=1 bus1="NODE#433298739.2" bus2="NODE#433471159.2" geometry=GEOM_MONO_CEMIG length=0.23923 units=km
New "Line.RED_SMT_245488813" phases=3 bus1="NODE#433298739.1.2.3" bus2="NODE#119540197.1.2.3" geometry=GEOM_LOSANG_CEMIG length=0.01505 units=km
New "Line.RED_RED_SMT_245488731" phases=3 bus1="NODE#433298739.1.2.3" bus2="NODE#433298573.1.2.3" geometry=GEOM_LOSANG_CEMIG length=0.14655 units=km
New "Line.SMT_243625216" phases=3 bus1="NODE#536850935.1.2.3" bus2="NODE#424247104.1.2.3" geometry=GEOM_LOSANG_CEMIG length=0.00051 units=km
New "Line.RED_RED_SMT_343728051" phases=3 bus1="NODE#424247104.1.2.3" bus2="NODE#445012600.1.2.3" geometry=GEOM_LOSANG_CEMIG length=0.30539 units=km
New "Line.SMT_245700294" phases=3 bus1="NODE#434807535.1.2.3" bus2="NODE#433298573.1.2.3" geometry=GEOM_LOSANG_CEMIG length=0.03624 units=km
New "Line.RED_SMT_342090619" phases=3 bus1="NODE#424246718.1.2.3" bus2="NODE#424312862.1.2.3" geometry=GEOM_LOSANG_CEMIG length=0.13563 units=km
New "Line.SMT_247807287" phases=3 bus1="NODE#444896763.1.2.3" bus2="NODE#444896762.1.2.3" geometry=GEOM_LOSANG_CEMIG length=0.03126 units=km
New "Line.RED_SMT_243624820" phases=3 bus1="NODE#424246001.1.2.3" bus2="NODE#424245112.1.2.3" geometry=GEOM_LOSANG_CEMIG length=0.18431 units=km
New "Line.SMT_247808327" phases=3 bus1="NODE#442497746.1.2.3" bus2="NODE#442498157.1.2.3" geometry=GEOM_LOSANG_CEMIG length=0.03048 units=km
New "Line.RED_SMT_348226216" phases=3 bus1="NODE#442497746.1.2.3" bus2="NODE#442497747.1.2.3" geometry=GEOM_LOSANG_CEMIG length=0.03808 units=km
New "Line.RED_SMT_243625131" phases=3 bus1="NODE#424246570.1.2.3" bus2="NODE#424245471.1.2.3" geometry=GEOM_LOSANG_CEMIG length=0.05921 units=km
New "Line.RED_SMT_342316023" phases=3 bus1="NODE#424246570.1.2.3" bus2="NODE#424246504.1.2.3" geometry=GEOM_LOSANG_CEMIG length=0.05825 units=km
New "Line.RED_SMT_243625119" phases=3 bus1="NODE#424246570.1.2.3" bus2="NODE#424246619.1.2.3" geometry=GEOM_LOSANG_CEMIG length=0.05756 units=km
New "Line.RED_RED_SMT_243624855" phases=3 bus1="NODE#424245231.1.2.3" bus2="NODE#424245315.1.2.3" geometry=GEOM_LOSANG_CEMIG length=0.19678 units=km
New "Line.SMT_245489569" phases=3 bus1="100#1086940520.1.2.3" bus2="NODE#433474377.1.2.3" geometry=GEOM_LOSANG_CEMIG length=0.02000 units=km
New "Line.SMT_245489506" phases=3 bus1="NODE#433474377.1.2.3" bus2="NODE#433474378.1.2.3" geometry=GEOM_LOSANG_CEMIG length=0.02236 units=km
New "Line.RED_SMT_247127423" phases=3 bus1="NODE#442497727.1.2.3" bus2="NODE#442497697.1.2.3" geometry=GEOM_LOSANG_CEMIG length=0.15070 units=km
New "Line.RED_SMT_343637992" phases=3 bus1="NODE#442497727.1.2.3" bus2="NODE#127688187.1.2.3" geometry=GEOM_LOSANG_CEMIG length=0.01803 units=km
New "Line.RED_RED_SMT_247127438" phases=3 bus1="NODE#442497727.1.2.3" bus2="NODE#442497906.1.2.3" geometry=GEOM_LOSANG_CEMIG length=0.19689 units=km
New "Line.SMT_245489308" phases=3 bus1="NODE#433472879.1.2.3" bus2="NODE#535524538.1.2.3" geometry=GEOM_LOSANG_CEMIG length=0.00050 units=km
New "Line.RED_SMT_245489294" phases=1 bus1="NODE#433472879.2" bus2="NODE#433474013.2" geometry=GEOM_MONO_CEMIG length=0.09243 units=km
New "Line.RED_SMT_343399894" phases=3 bus1="NODE#433472879.1.2.3" bus2="NODE#424245391.1.2.3" geometry=GEOM_LOSANG_CEMIG length=0.06237 units=km
New "Line.SMT_247808366" phases=1 bus1="NODE#445009506.2" bus2="NODE#445009512.2" geometry=GEOM_MONO_CEMIG length=0.02691 units=km
New "Line.SMT_247808365" phases=1 bus1="NODE#445009506.2" bus2="NODE#445009507.2" geometry=GEOM_MONO_CEMIG length=0.01140 units=km
New "Line.RED_RED_SMT_247808795" phases=1 bus1="NODE#445009512.2" bus2="NODE#433473032.2" geometry=GEOM_MONO_CEMIG length=0.13493 units=km
New "Line.RED_SMT_348076078" phases=3 bus1="NODE#433298263.1.2.3" bus2="NODE#433298264.1.2.3" geometry=GEOM_LOSANG_CEMIG length=0.05371 units=km
New "Line.RED_SMT_348286412" phases=1 bus1="NODE#433472239.2" bus2="NODE#433472213.2" geometry=GEOM_MONO_CEMIG length=0.10764 units=km
New "Line.SMT_243624782" phases=3 bus1="NODE#424244242.1.2.3" bus2="NODE#424244917.1.2.3" geometry=GEOM_LOSANG_CEMIG length=0.03191 units=km
New "Line.RED_SMT_243624647" phases=3 bus1="NODE#424244242.1.2.3" bus2="NODE#534875323.1.2.3" geometry=GEOM_LOSANG_CEMIG length=0.02932 units=km
New "Line.SMT_245489507" phases=3 bus1="NODE#433474382.1.2.3" bus2="NODE#433474383.1.2.3" geometry=GEOM_LOSANG_CEMIG length=0.02983 units=km
New "Line.RED_RED_SMT_245489514" phases=3 bus1="NODE#433474382.1.2.3" bus2="NODE#433642918.1.2.3" geometry=GEOM_LOSANG_CEMIG length=0.24596 units=km
New "Line.RED_RED_SMT_247808817" phases=3 bus1="NODE#445011771.1.2.3" bus2="NODE#442498247.1.2.3" geometry=GEOM_LOSANG_CEMIG length=0.10540 units=km
New "Line.SMT_245488960" phases=3 bus1="NODE#424245471.1.2.3" bus2="NODE#118744227.1.2.3" geometry=GEOM_LOSANG_CEMIG length=0.03640 units=km
New "Line.RED_RED_SMT_245489081" phases=1 bus1="NODE#433472273.2" bus2="NODE#433472249.2" geometry=GEOM_MONO_CEMIG length=0.13877 units=km
New "Line.RED_SMT_247808742" phases=3 bus1="NODE#445010711.1.2.3" bus2="NODE#445010391.1.2.3" geometry=GEOM_LOSANG_CEMIG length=0.21449 units=km
New "Line.RED_SMT_1555106632" phases=3 bus1="NODE#445010711.1.2.3" bus2="NODE#445010712.1.2.3" geometry=GEOM_LOSANG_CEMIG length=0.04100 units=km
New "Line.SMT_243625255" phases=3 bus1="NODE#424311703.1.2.3" bus2="NODE#424311709.1.2.3" geometry=GEOM_LOSANG_CEMIG length=0.03068 units=km
New "Line.SMT_243625261" phases=3 bus1="NODE#424311703.1.2.3" bus2="NODE#424311738.1.2.3" geometry=GEOM_LOSANG_CEMIG length=0.02907 units=km
New "Line.SMT_247807971" phases=3 bus1="NODE#444956008.1.2.3" bus2="NODE#434807435.1.2.3" geometry=GEOM_LOSANG_CEMIG length=0.03089 units=km
New "Line.RED_SMT_247808136" phases=3 bus1="NODE#434807435.1.2.3" bus2="NODE#444956393.1.2.3" geometry=GEOM_LOSANG_CEMIG length=0.08162 units=km
New "Line.RED_SMT_343795692" phases=3 bus1="NODE#434807435.1.2.3" bus2="NODE#124637383.1.2.3" geometry=GEOM_LOSANG_CEMIG length=0.00500 units=km
New "Line.RED_SMT_247127525" phases=3 bus1="NODE#442498247.1.2.3" bus2="NODE#442497646.1.2.3" geometry=GEOM_LOSANG_CEMIG length=0.13121 units=km
New "Line.RED_SMT_247808946" phases=3 bus1="NODE#439763635.1.2.3" bus2="NODE#445011950.1.2.3" geometry=GEOM_LOSANG_CEMIG length=0.13996 units=km
New "Line.RED_SMT_342650701" phases=3 bus1="NODE#439763635.1.2.3" bus2="NODE#125828784.1.2.3" geometry=GEOM_LOSANG_CEMIG length=0.02326 units=km
New "Line.SMT_245488766" phases=3 bus1="NODE#119540197.1.2.3" bus2="NODE#433298914.1.2.3" geometry=GEOM_LOSANG_CEMIG length=0.00424 units=km
New "Line.RED_SMT_749728106" phases=3 bus1="NODE#1023251613.1.2.3" bus2="NODE#424246733.1.2.3" geometry=GEOM_LOSANG_CEMIG length=0.15256 units=km
New "Line.RED_RED_SMT_245489411" phases=3 bus1="NODE#433474647.1.2.3" bus2="NODE#433473807.1.2.3" geometry=GEOM_LOSANG_CEMIG length=0.19669 units=km
New "Line.RED_SMT_245489312" phases=1 bus1="NODE#433473407.2" bus2="NODE#433472689.2" geometry=GEOM_MONO_CEMIG length=0.17029 units=km
New "Line.SMT_243624803" phases=3 bus1="NODE#424245026.1.2.3" bus2="NODE#424245027.1.2.3" geometry=GEOM_LOSANG_CEMIG length=0.01118 units=km
New "Line.SMT_247807483" phases=3 bus1="NODE#424245026.1.2.3" bus2="NODE#424244272.1.2.3" geometry=GEOM_LOSANG_CEMIG length=0.00985 units=km
New "Line.RED_SMT_247127484" phases=3 bus1="NODE#442497646.1.2.3" bus2="NODE#442497752.1.2.3" geometry=GEOM_LOSANG_CEMIG length=0.05506 units=km
New "Line.RED_SMT_243624487" phases=3 bus1="NODE#1600635845.1.2.3" bus2="NODE#424243361.1.2.3" geometry=GEOM_LOSANG_CEMIG length=0.16356 units=km
New "Line.RED_RED_SMT_247809144" phases=3 bus1="NODE#445055941.1.2.3" bus2="NODE#433474378.1.2.3" geometry=GEOM_LOSANG_CEMIG length=0.16783 units=km
New "Line.SMT_247808331" phases=3 bus1="NODE#442497752.1.2.3" bus2="NODE#445009337.1.2.3" geometry=GEOM_LOSANG_CEMIG length=0.03500 units=km
New "Line.RED_SMT_923613637" phases=3 bus1="NODE#445009337.1.2.3" bus2="NODE#433470858.1.2.3" geometry=GEOM_LOSANG_CEMIG length=0.03509 units=km
New "Line.RED_SMT_347582219" phases=1 bus1="NODE#445009507.2" bus2="NODE#445009957.2" geometry=GEOM_MONO_CEMIG length=0.06768 units=km
New "Line.RED_SMT_245489388" phases=3 bus1="NODE#433473807.1.2.3" bus2="NODE#433473788.1.2.3" geometry=GEOM_LOSANG_CEMIG length=0.16247 units=km
New "Line.SMT_247127415" phases=3 bus1="NODE#442497692.1.2.3" bus2="NODE#442497697.1.2.3" geometry=GEOM_LOSANG_CEMIG length=0.03758 units=km
New "Line.RED_SMT_343535937" phases=3 bus1="NODE#442497697.1.2.3" bus2="NODE#127325960.1.2.3" geometry=GEOM_LOSANG_CEMIG length=0.01603 units=km
New "Line.RED_SMT_247808620" phases=3 bus1="NODE#445010091.1.2.3" bus2="NODE#445010782.1.2.3" geometry=GEOM_LOSANG_CEMIG length=0.13481 units=km
New "Line.RED_SMT_341832950" phases=3 bus1="NODE#442498157.1.2.3" bus2="NODE#433470943.1.2.3" geometry=GEOM_LOSANG_CEMIG length=0.05823 units=km
New "Line.SMT_247127401" phases=3 bus1="NODE#424246504.1.2.3" bus2="NODE#442497626.1.2.3" geometry=GEOM_LOSANG_CEMIG length=0.03220 units=km
New "Line.SMT_245489606" phases=3 bus1="NODE#433474378.1.2.3" bus2="NODE#433474482.1.2.3" geometry=GEOM_LOSANG_CEMIG length=0.02360 units=km
New "Line.RED_SMT_1083522199" phases=3 bus1="NODE#442497677.1.2.3" bus2="NODE#433470988.1.2.3" geometry=GEOM_LOSANG_CEMIG length=0.03014 units=km
New "Line.RED_RED_SMT_247127411" phases=3 bus1="NODE#442497677.1.2.3" bus2="NODE#424246399.1.2.3" geometry=GEOM_LOSANG_CEMIG length=0.11573 units=km
New "Line.SMT_348226199" phases=3 bus1="NODE#728593131.1.2.3" bus2="NODE#728593106.1.2.3" geometry=GEOM_LOSANG_CEMIG length=0.00026 units=km
New "Line.RED_SMT_458960003" phases=3 bus1="NODE#728593131.1.2.3" bus2="NODE#728593187.1.2.3" geometry=GEOM_LOSANG_CEMIG length=0.01000 units=km
New "Line.RED_SMT_458959929" phases=3 bus1="NODE#728593131.1.2.3" bus2="NODE#728593105.1.2.3" geometry=GEOM_LOSANG_CEMIG length=0.00023 units=km
New "Line.RED_RED_SMT_2181661369" phases=3 bus1="NODE#442497631.1.2.3" bus2="NODE#2488240309.1.2.3" geometry=GEOM_LOSANG_CEMIG length=0.15800 units=km
New "Line.SMT_245489330" phases=3 bus1="NODE#433473497.1.2.3" bus2="NODE#433473492.1.2.3" geometry=GEOM_LOSANG_CEMIG length=0.04441 units=km
New "Line.RED_SMT_247807981" phases=3 bus1="NODE#444956059.1.2.3" bus2="NODE#444956393.1.2.3" geometry=GEOM_LOSANG_CEMIG length=0.09239 units=km
New "Line.SMT_247127570" phases=3 bus1="NODE#433473788.1.2.3" bus2="NODE#434602944.1.2.3" geometry=GEOM_LOSANG_CEMIG length=0.02508 units=km
New "Line.SMT_247127458" phases=3 bus1="NODE#442497906.1.2.3" bus2="NODE#442497626.1.2.3" geometry=GEOM_LOSANG_CEMIG length=0.03202 units=km
New "Line.SMT_247127533" phases=3 bus1="NODE#442497906.1.2.3" bus2="NODE#534876953.1.2.3" geometry=GEOM_LOSANG_CEMIG length=0.00043 units=km
New "Line.RED_SMT_348546967" phases=3 bus1="NODE#433471583.1.2.3" bus2="NODE#433471389.1.2.3" geometry=GEOM_LOSANG_CEMIG length=0.12789 units=km
New "Line.RED_RED_RED_SMT_245699700" phases=3 bus1="NODE#424246733.1.2.3" bus2="NODE#433642918.1.2.3" geometry=GEOM_LOSANG_CEMIG length=0.20862 units=km
New "Line.RED_SMT_458959908" phases=3 bus1="NODE#433471648.1.2.3" bus2="NODE#728593105.1.2.3" geometry=GEOM_LOSANG_CEMIG length=0.04123 units=km
New "Line.RED_SMT_348546957" phases=3 bus1="NODE#433471648.1.2.3" bus2="NODE#433471649.1.2.3" geometry=GEOM_LOSANG_CEMIG length=0.02829 units=km
New "Line.SMT_247807819" phases=3 bus1="NODE#444896762.1.2.3" bus2="NODE#534875324.1.2.3" geometry=GEOM_LOSANG_CEMIG length=0.01954 units=km
New "Line.RED_SMT_343236811" phases=3 bus1="NODE#433474383.1.2.3" bus2="NODE#127690257.1.2.3" geometry=GEOM_LOSANG_CEMIG length=0.01712 units=km
New "Line.RED_SMT_245489180" phases=3 bus1="NODE#433472744.1.2.3" bus2="NODE#424246619.1.2.3" geometry=GEOM_LOSANG_CEMIG length=0.05766 units=km
New "Line.RED_SMT_247808477" phases=3 bus1="NODE#424246399.1.2.3" bus2="NODE#445009746.1.2.3" geometry=GEOM_LOSANG_CEMIG length=0.31276 units=km
New "Line.RED_RED_RED_SMT_247808444" phases=3 bus1="NODE#424246399.1.2.3" bus2="NODE#445011950.1.2.3" geometry=GEOM_LOSANG_CEMIG length=0.75884 units=km
New "Line.RED_RED_SMT_341429373" phases=3 bus1="NODE#424247013.1.2.3" bus2="NODE#424246834.1.2.3" geometry=GEOM_LOSANG_CEMIG length=0.18880 units=km
New "Line.RED_RED_SMT_247809049" phases=3 bus1="NODE#434602944.1.2.3" bus2="NODE#445012600.1.2.3" geometry=GEOM_LOSANG_CEMIG length=0.30805 units=km
New "Line.SMT_247808836" phases=1 bus1="NODE#433472689.2" bus2="NODE#445011866.2" geometry=GEOM_MONO_CEMIG length=0.04000 units=km
New "Line.RED_SMT_245488829" phases=3 bus1="NODE#433471424.1.2.3" bus2="NODE#433470988.1.2.3" geometry=GEOM_LOSANG_CEMIG length=0.24711 units=km
New "Line.SMT_247391618" phases=3 bus1="NODE#445009746.1.2.3" bus2="NODE#433470943.1.2.3" geometry=GEOM_LOSANG_CEMIG length=0.02731 units=km
New "Line.SMT_247808713" phases=3 bus1="NODE#445009746.1.2.3" bus2="NODE#424245112.1.2.3" geometry=GEOM_LOSANG_CEMIG length=0.02140 units=km
New "Line.RED_SMT_348868115" phases=1 bus1="NODE#424311644.1" bus2="NODE#424312348.1" geometry=GEOM_MONO_CEMIG length=0.14667 units=km
New "Line.RED_SMT_313439324" phases=3 bus1="NODE#190549115.1.2.3" bus2="NODE#434807426.1.2.3" geometry=GEOM_LOSANG_CEMIG length=0.01946 units=km
New "Line.SMT_243625181" phases=3 bus1="NODE#424246834.1.2.3" bus2="NODE#829725397.1.2.3" geometry=GEOM_LOSANG_CEMIG length=0.03842 units=km
New "Line.SMT_247808049" phases=3 bus1="NODE#444956393.1.2.3" bus2="NODE#444956399.1.2.3" geometry=GEOM_LOSANG_CEMIG length=0.00860 units=km
New "Line.RED_SMT_1555106543" phases=3 bus1="NODE#445010712.1.2.3" bus2="NODE#1856060650.1.2.3" geometry=GEOM_LOSANG_CEMIG length=0.14900 units=km
New "Line.SMT_243625370" phases=3 bus1="NODE#424312287.1.2.3" bus2="NODE#424312288.1.2.3" geometry=GEOM_LOSANG_CEMIG length=0.02717 units=km
New "Line.SMT_343240696" phases=3 bus1="NODE#424245112.1.2.3" bus2="NODE#537292171.1.2.3" geometry=GEOM_LOSANG_CEMIG length=0.02209 units=km
New "Line.SMT_245489237" phases=1 bus1="NODE#433473032.2" bus2="NODE#433473033.2" geometry=GEOM_MONO_CEMIG length=0.08544 units=km
New "Line.RED_SMT_343727681" phases=3 bus1="NODE#424245360.1.2.3" bus2="NODE#537936510.1.2.3" geometry=GEOM_LOSANG_CEMIG length=0.08571 units=km
New "Line.CMT_194789368" phases=3 bus1="SEGM#194789369.1.2.3" bus2="100#207301442.1.2.3" r1=0.001 r0=0.001 x1=0.0 x0=0.0 c1=0.0 c0=0.0 switch=T length=0.00100
New "Line.CMT_194790108" phases=3 bus1="SEGM#194790109.1.2.3" bus2="SEGM#194789369.1.2.3" r1=0.001 r0=0.001 x1=0.0 x0=0.0 c1=0.0 c0=0.0 switch=T length=0.00100
